simulators/grid-opentes/src/data/BT38/BT38_Lines.dss
! Linhas. Comprimento em km.

New Line.mt_0_1 phases=3 bus1=n0 bus2=n1 linecode=MT_336MCM length=0.600000 units=km
New Line.mt_1_2 phases=3 bus1=n1 bus2=n2 linecode=MT_336MCM length=0.800000 units=km
New Line.mt_2_3 phases=3 bus1=n2 bus2=n3 linecode=MT_336MCM length=1.000000 units=km
New Line.mt_3_4 phases=3 bus1=n3 bus2=n4 linecode=MT_336MCM length=1.200000 units=km
New Line.bt_5_6 phases=3 bus1=n5 bus2=n6 linecode=BT_TRONCO_70 length=0.045000 units=km
New Line.bt_6_7 phases=3 bus1=n6 bus2=n7 linecode=BT_TRONCO_70 length=0.045000 units=km
New Line.bt_7_8 phases=3 bus1=n7 bus2=n8 linecode=BT_TRONCO_70 length=0.045000 units=km
New Line.bt_6_9 phases=3 bus1=n6 bus2=n9 linecode=BT_RAMAL_35 length=0.045000 units=km
New Line.bt_7_10 phases=3 bus1=n7 bus2=n10 linecode=BT_RAMAL_35 length=0.045000 units=km
New Line.bt_8_11 phases=3 bus1=n8 bus2=n11 linecode=BT_RAMAL_35 length=0.045000 units=km
New Line.bt_12_13 phases=3 bus1=n12 bus2=n13 linecode=BT_TRONCO_70 length=0.055000 units=km
New Line.bt_13_14 phases=3 bus1=n13 bus2=n14 linecode=BT_TRONCO_70 length=0.055000 units=km
New Line.bt_14_15 phases=3 bus1=n14 bus2=n15 linecode=BT_TRONCO_70 length=0.055000 units=km
New Line.bt_15_16 phases=3 bus1=n15 bus2=n16 linecode=BT_TRONCO_70 length=0.055000 units=km
New Line.bt_16_17 phases=3 bus1=n16 bus2=n17 linecode=BT_TRONCO_70 length=0.055000 units=km
New Line.bt_14_18 phases=3 bus1=n14 bus2=n18 linecode=BT_RAMAL_35 length=0.055000 units=km
New Line.bt_18_19 phases=3 bus1=n18 bus2=n19 linecode=BT_RAMAL_35 length=0.055000 units=km
New Line.bt_16_20 phases=3 bus1=n16 bus2=n20 linecode=BT_RAMAL_35 length=0.055000 units=km
New Line.bt_20_21 phases=3 bus1=n20 bus2=n21 linecode=BT_RAMAL_35 length=0.055000 units=km
New Line.bt_22_23 phases=3 bus1=n22 bus2=n23 linecode=BT_TRONCO_70 length=0.060000 units=km
New Line.bt_23_24 phases=3 bus1=n23 bus2=n24 linecode=BT_TRONCO_70 length=0.060000 units=km
New Line.bt_24_25 phases=3 bus1=n24 bus2=n25 linecode=BT_TRONCO_70 length=0.060000 units=km
New Line.bt_25_26 phases=3 bus1=n25 bus2=n26 linecode=BT_TRONCO_70 length=0.060000 units=km
New Line.bt_26_27 phases=3 bus1=n26 bus2=n27 linecode=BT_TRONCO_70 length=0.060000 units=km
New Line.bt_27_28 phases=3 bus1=n27 bus2=n28 linecode=BT_TRONCO_70 length=0.060000 units=km
New Line.bt_25_29 phases=3 bus1=n25 bus2=n29 linecode=BT_RAMAL_35 length=0.060000 units=km
New Line.bt_29_30 phases=3 bus1=n29 bus2=n30 linecode=BT_RAMAL_35 length=0.060000 units=km
New Line.bt_29_31 phases=3 bus1=n29 bus2=n31 linecode=BT_RAMAL_35 length=0.060000 units=km
New Line.bt_27_32 phases=3 bus1=n27 bus2=n32 linecode=BT_RAMAL_35 length=0.060000 units=km
New Line.bt_32_33 phases=3 bus1=n32 bus2=n33 linecode=BT_RAMAL_35 length=0.060000 units=km
New Line.bt_34_35 phases=3 bus1=n34 bus2=n35 linecode=BT_TRONCO_70 length=0.075000 units=km
New Line.bt_35_36 phases=3 bus1=n35 bus2=n36 linecode=BT_TRONCO_70 length=0.075000 units=km
New Line.bt_36_37 phases=3 bus1=n36 bus2=n37 linecode=BT_TRONCO_70 length=0.075000 units=km
New Line.bt_37_38 phases=3 bus1=n37 bus2=n38 linecode=BT_TRONCO_70 length=0.075000 units=km
New Line.bt_38_39 phases=3 bus1=n38 bus2=n39 linecode=BT_TRONCO_70 length=0.075000 units=km
New Line.bt_39_40 phases=3 bus1=n39 bus2=n40 linecode=BT_TRONCO_70 length=0.075000 units=km
New Line.bt_40_41 phases=3 bus1=n40 bus2=n41 linecode=BT_TRONCO_70 length=0.075000 units=km
New Line.bt_41_42 phases=3 bus1=n41 bus2=n42 linecode=BT_TRONCO_70 length=0.075000 units=km
New Line.bt_38_43 phases=3 bus1=n38 bus2=n43 linecode=BT_RAMAL_35 length=0.075000 units=km
New Line.bt_43_44 phases=3 bus1=n43 bus2=n44 linecode=BT_RAMAL_35 length=0.075000 units=km
New Line.bt_41_45 phases=3 bus1=n41 bus2=n45 linecode=BT_RAMAL_35 length=0.075000 units=km
New Line.bt_45_46 phases=3 bus1=n45 bus2=n46 linecode=BT_RAMAL_35 length=0.075000 units=km
