simulators/grid-opentes/src/data/BT38/BT38_Transformers.dss
! Transformadores NBR 5440. vk=3.5%, vkr=1.4%.

New Transformer.trafo_1_5 phases=3 windings=2 xhl=3.2078 %loadloss=1.4 %noloadloss=0.25 %imag=0.25
~ wdg=1 bus=n1 conn=delta kv=13.8 kva=75
~ wdg=2 bus=n5 conn=wye kv=0.38 kva=75
New Transformer.trafo_2_12 phases=3 windings=2 xhl=3.2078 %loadloss=1.4 %noloadloss=0.25 %imag=0.25
~ wdg=1 bus=n2 conn=delta kv=13.8 kva=45
~ wdg=2 bus=n12 conn=wye kv=0.38 kva=45
New Transformer.trafo_3_22 phases=3 windings=2 xhl=3.2078 %loadloss=1.4 %noloadloss=0.25 %imag=0.25
~ wdg=1 bus=n3 conn=delta kv=13.8 kva=45
~ wdg=2 bus=n22 conn=wye kv=0.38 kva=45
New Transformer.trafo_4_34 phases=3 windings=2 xhl=3.2078 %loadloss=1.4 %noloadloss=0.25 %imag=0.25
~ wdg=1 bus=n4 conn=delta kv=13.8 kva=30
~ wdg=2 bus=n34 conn=wye kv=0.38 kva=30
